26
Coordinates from ORCA-job stilbene_TS_Compound_2 E -540.281094810000
  C           0.64098239371730      1.77682047137124      0.35035033706918
  C          -0.64098233778463      1.77681937549134     -0.35035399055011
  C          -1.74812922538130      0.97728132410704     -0.01769240085909
  C          -2.95908256609865      1.09242742785097     -0.74318839041881
  C          -4.05219389733346      0.31849990479152     -0.43097269449647
  C          -3.98975830712950     -0.60053846664139      0.61300699594302
  C          -2.81072644687048     -0.73340033221467      1.34041886830657
  C          -1.70925670441114      0.03413194136538      1.03748836603240
  C           1.74812912819732      0.97728139523669      0.01769057127656
  C           1.70925657744151      0.03412927028657     -1.03748773148300
  C           2.81072641681965     -0.73340353525876     -1.34041652314135
  C           3.98975840156046     -0.60053962033198     -0.61300522912441
  C           4.05219398418601      0.31850134379679      0.43097217972371
  C           2.95908258069120      1.09242947569506      0.74318609972979
  H           0.76734458631826      2.47380289858868      1.17022510877483
  H          -0.76734422805792      2.47379924835779     -1.17023095995829
  H          -3.01334865606057      1.80410905641580     -1.55212356567888
  H          -4.96287279817460      0.42554941915322     -0.99842131137965
  H          -4.84811534243332     -1.20525015907859      0.85537639888183
  H          -2.75758380673539     -1.44518544073936      2.14878004418340
  H          -0.79775916990243     -0.07702711917916      1.60079204808182
  H           0.79775898777092     -0.07703143724229     -1.60079099308902
  H           2.75758374527190     -1.44519068413165     -2.14877589669361
  H           4.84811551722504     -1.20525171427795     -0.85537331617228
  H           4.96287295126821      0.42555243922322      0.99842038571493
  H           3.01334869290560      1.80411312036449      1.55211949232692
