26
Coordinates from ORCA-job stilbene_TS_Compound_2 E -540.308008740000
  C       0.607197      1.398243      0.396448
  C      -0.607197      1.398243     -0.396449
  C      -1.809919      0.825740      0.002524
  C      -2.965118      0.892668     -0.821106
  C      -4.147220      0.319190     -0.425362
  C      -4.239061     -0.342660      0.795941
  C      -3.120740     -0.423926      1.621427
  C      -1.930406      0.143266      1.243208
  C       1.809920      0.825740     -0.002525
  C       1.930406      0.143265     -1.243208
  C       3.120740     -0.423929     -1.621426
  C       4.239060     -0.342661     -0.795940
  C       4.147220      0.319191      0.425362
  C       2.965119      0.892669      0.821105
  H       0.570402      1.895580      1.360294
  H      -0.570401      1.895579     -1.360296
  H      -2.896703      1.405844     -1.769756
  H      -5.015853      0.380519     -1.065640
  H      -5.172333     -0.791257      1.100593
  H      -3.193402     -0.939873      2.568338
  H      -1.059215      0.077886      1.878685
  H       1.059215      0.077883     -1.878685
  H       3.193402     -0.939877     -2.568337
  H       5.172333     -0.791259     -1.100592
  H       5.015854      0.380520      1.065639
  H       2.896704      1.405847      1.769754
26
Coordinates from ORCA-job stilbene_TS_Compound_2 E -540.300385560000
  C       0.614924      1.567538      0.384247
  C      -0.614923      1.567536     -0.384254
  C      -1.783591      0.911893      0.014449
  C      -2.934777      0.913979     -0.814290
  C      -4.063808      0.218427     -0.455796
  C      -4.118753     -0.465890      0.754746
  C      -3.010830     -0.460487      1.598605
  C      -1.865806      0.208947      1.244267
  C       1.783594      0.911902     -0.014457
  C       1.865812      0.208956     -1.244274
  C       3.010833     -0.460486     -1.598605
  C       4.118749     -0.465895     -0.754738
  C       4.063804      0.218426      0.455801
  C       2.934777      0.913985      0.814287
  H       0.605789      2.084667      1.339036
  H      -0.605786      2.084664     -1.339045
  H      -2.901799      1.454638     -1.748379
  H      -4.922908      0.215801     -1.110029
  H      -5.009510     -1.007184      1.032172
  H      -3.052067     -0.991289      2.537988
  H      -0.996794      0.190164      1.884107
  H       0.996804      0.190180     -1.884119
  H       3.052070     -0.991289     -2.537985
  H       5.009501     -1.007198     -1.032156
  H       4.922898      0.215797      1.110039
  H       2.901799      1.454645      1.748375
26
Coordinates from ORCA-job stilbene_TS_Compound_2 E -540.291463610000
  C       0.630329      1.660881      0.367069
  C      -0.630330      1.660877     -0.367085
  C      -1.772991      0.956749      0.023449
  C      -2.910360      0.895639     -0.821528
  C      -4.008466      0.144515     -0.476963
  C      -4.048335     -0.534414      0.737225
  C      -2.957626     -0.462529      1.600797
  C      -1.839919      0.257236      1.257145
  C       1.772991      0.956751     -0.023458
  C       1.839929      0.257242     -1.257155
  C       2.957637     -0.462526     -1.600796
  C       4.048335     -0.534419     -0.737212
  C       4.008456      0.144509      0.476976
  C       2.910351      0.895637      0.821530
  H       0.661933      2.220078      1.298830
  H      -0.661934      2.220062     -1.298854
  H      -2.892378      1.438193     -1.754612
  H      -4.853287      0.091963     -1.146725
  H      -4.911667     -1.123978      1.001286
  H      -2.988225     -0.985086      2.544791
  H      -0.980692      0.281978      1.908694
  H       0.980712      0.281994     -1.908716
  H       2.988244     -0.985080     -2.544791
  H       4.911666     -1.123987     -1.001264
  H       4.853269      0.091953      1.146747
  H       2.892362      1.438190      1.754615
26
Coordinates from ORCA-job stilbene_TS_Compound_2 E -540.285312990000
  C       0.639747      1.730473      0.359661
  C      -0.639748      1.730469     -0.359681
  C      -1.757321      0.982805      0.021466
  C      -2.891802      0.897724     -0.826047
  C      -3.970217      0.115099     -0.488705
  C      -3.991578     -0.577580      0.718365
  C      -2.902224     -0.486453      1.582331
  C      -1.804286      0.267013      1.246627
  C       1.757321      0.982807     -0.021476
  C       1.804298      0.267019     -1.246638
  C       2.902235     -0.486450     -1.582330
  C       3.991578     -0.577585     -0.718350
  C       3.970206      0.115092      0.488720
  C       2.891791      0.897721      0.826050
  H       0.700060      2.319887      1.269819
  H      -0.700062      2.319873     -1.269846
  H      -2.887306      1.448034     -1.754328
  H      -4.812671      0.046745     -1.159586
  H      -4.839035     -1.191802      0.976669
  H      -2.917937     -1.020012      2.520183
  H      -0.947565      0.309295      1.900260
  H       0.947587      0.309309     -1.900284
  H       2.917959     -1.020006     -2.520184
  H       4.839035     -1.191810     -0.976644
  H       4.812651      0.046733      1.159611
  H       2.887286      1.448030      1.754331
26
Coordinates from ORCA-job stilbene_TS_Compound_2 E -540.282334200000
  C       0.643812      1.771358      0.356918
  C      -0.643812      1.771355     -0.356938
  C      -1.746986      0.996994      0.012761
  C      -2.890832      0.921160     -0.823180
  C      -3.958780      0.121925     -0.491770
  C      -3.957622     -0.602889      0.696883
  C      -2.857297     -0.525324      1.547918
  C      -1.770224      0.246810      1.217704
  C       1.746985      0.996993     -0.012769
  C       1.770233      0.246813     -1.217713
  C       2.857308     -0.525323     -1.547916
  C       3.957623     -0.602892     -0.696870
  C       3.958770      0.121919      0.491784
  C       2.890821      0.921156      0.823183
  H       0.723244      2.385834      1.248521
  H      -0.723247      2.385822     -1.248547
  H      -2.903091      1.494549     -1.737210
  H      -4.809113      0.063544     -1.153236
  H      -4.796931     -1.229710      0.950964
  H      -2.855025     -1.083796      2.471087
  H      -0.906360      0.280777      1.861994
  H       0.906377      0.280785     -1.862014
  H       2.855044     -1.083792     -2.471087
  H       4.796933     -1.229715     -0.950943
  H       4.809096      0.063534      1.153259
  H       2.903073      1.494544      1.737213
26
Coordinates from ORCA-job stilbene_TS_Compound_2 E -540.281362780000
  C       0.644585      1.789183      0.356165
  C      -0.644585      1.789180     -0.356183
  C      -1.741663      1.001010      0.005212
  C      -2.897716      0.948719     -0.815668
  C      -3.964134      0.145929     -0.488273
  C      -3.945501     -0.612737      0.679305
  C      -2.830773     -0.563411      1.512915
  C      -1.746923      0.216270      1.187445
  C       1.741662      1.001009     -0.005219
  C       1.746930      0.216271     -1.187452
  C       2.830781     -0.563411     -1.512914
  C       3.945502     -0.612739     -0.679295
  C       3.964127      0.145925      0.488284
  C       2.897708      0.948716      0.815671
  H       0.736021      2.420651      1.234048
  H      -0.736022      2.420642     -1.234070
  H      -2.922305      1.545675     -1.714150
  H      -4.825350      0.109261     -1.136859
  H      -4.783631     -1.242055      0.930698
  H      -2.814211     -1.148679      2.419007
  H      -0.874158      0.231413      1.819996
  H       0.874171      0.231417     -1.820012
  H       2.814225     -1.148677     -2.419007
  H       4.783633     -1.242058     -0.930681
  H       4.825337      0.109254      1.136877
  H       2.922291      1.545672      1.714153
26
Coordinates from ORCA-job stilbene_TS_Compound_2 E -540.281015520000
  C       0.644372      1.797197      0.355323
  C      -0.644372      1.797195     -0.355337
  C      -1.739287      1.000739     -0.001593
  C      -2.908984      0.980025     -0.804035
  C      -3.977461      0.178375     -0.480704
  C      -3.943628     -0.616815      0.662237
  C      -2.813200     -0.603072      1.475169
  C      -1.729198      0.179521      1.154809
  C       1.739286      1.000738      0.001588
  C       1.729202      0.179520     -1.154814
  C       2.813205     -0.603073     -1.475167
  C       3.943629     -0.616817     -0.662229
  C       3.977457      0.178372      0.480712
  C       2.908978      0.980023      0.804036
  H       0.745921      2.444151      1.220157
  H      -0.745921      2.444143     -1.220175
  H      -2.944199      1.602732     -1.684450
  H      -4.850789      0.169611     -1.113699
  H      -4.783406     -1.244821      0.911108
  H      -2.784248     -1.216984      2.361651
  H      -0.846861      0.170568      1.773684
  H       0.846870      0.170569     -1.773694
  H       2.784257     -1.216984     -2.361650
  H       4.783408     -1.244823     -0.911096
  H       4.850781      0.169607      1.113712
  H       2.944189      1.602731      1.684451
26
Coordinates from ORCA-job stilbene_TS_Compound_2 E -540.280923880000
  C       0.643858      1.799789      0.354108
  C      -0.643858      1.799787     -0.354118
  C      -1.738747      0.998023     -0.007368
  C      -2.921749      1.012242     -0.789630
  C      -3.994289      0.214338     -0.470237
  C      -3.947668     -0.617624      0.645881
  C      -2.801898     -0.642459      1.436226
  C      -1.715888      0.140484      1.121374
  C       1.738747      0.998022      0.007364
  C       1.715890      0.140483     -1.121377
  C       2.801901     -0.642461     -1.436224
  C       3.947668     -0.617625     -0.645876
  C       3.994287      0.214337      0.470242
  C       2.921746      1.012242      0.789630
  H       0.754455      2.461599      1.205913
  H      -0.754455      2.461592     -1.205927
  H      -2.965757      1.660962     -1.650594
  H      -4.879492      0.235997     -1.086025
  H      -4.790614     -1.242223      0.892356
  H      -2.762493     -1.285225      2.301477
  H      -0.824392      0.105321      1.725680
  H       0.824396      0.105319     -1.725686
  H       2.762499     -1.285227     -2.301475
  H       4.790615     -1.242225     -0.892347
  H       4.879487      0.235996      1.086033
  H       2.965751      1.660963      1.650593
26
Coordinates from ORCA-job stilbene_TS_Compound_2 E -540.280969030000
  C       0.642952      1.797429      0.352521
  C      -0.642952      1.797428     -0.352528
  C      -1.739993      0.992817     -0.012420
  C      -2.935311      1.044330     -0.773015
  C      -4.013796      0.252701     -0.457109
  C      -3.957235     -0.615236      0.630702
  C      -2.797017     -0.680658      1.396851
  C      -1.707195      0.099931      1.087390
  C       1.739993      0.992816      0.012417
  C       1.707196      0.099928     -1.087391
  C       2.797018     -0.680660     -1.396849
  C       3.957236     -0.615237     -0.630698
  C       4.013795      0.252701      0.457111
  C       2.935310      1.044330      0.773014
  H       0.761832      2.473783      1.191189
  H      -0.761832      2.473778     -1.191199
  H      -2.986049      1.718654     -1.613644
  H      -4.910136      0.306488     -1.054372
  H      -4.804730     -1.234324      0.875254
  H      -2.749349     -1.351713      2.239804
  H      -0.807220      0.037021      1.676375
  H       0.807221      0.037018     -1.676377
  H       2.749351     -1.351717     -2.239801
  H       4.804731     -1.234325     -0.875248
  H       4.910134      0.306489      1.054376
  H       2.986046      1.718657      1.613642
26
Coordinates from ORCA-job stilbene_TS_Compound_2 E -540.281066490000
  C       0.641477      1.788417      0.350740
  C      -0.641477      1.788417     -0.350745
  C      -1.743531      0.984210     -0.016576
  C      -2.949625      1.075915     -0.754279
  C      -4.036601      0.294187     -0.441012
  C      -3.974078     -0.608243      0.617633
  C      -2.800734     -0.716860      1.358160
  C      -1.704612      0.057432      1.053440
  C       1.743531      0.984210      0.016574
  C       1.704612      0.057430     -1.053440
  C       2.800734     -0.716863     -1.358157
  C       3.974078     -0.608244     -0.617630
  C       4.036601      0.294189      0.441012
  C       2.949624      1.075917      0.754277
  H       0.767143      2.478827      1.176459
  H      -0.767143      2.478824     -1.176465
  H      -3.004187      1.775062     -1.574076
  H      -4.942927      0.382153     -1.018659
  H      -4.827912     -1.218985      0.860917
  H      -2.747805     -1.415285      2.178136
  H      -0.796924     -0.035610      1.626133
  H       0.796925     -0.035614     -1.626132
  H       2.747805     -1.415291     -2.178132
  H       4.827912     -1.218986     -0.860913
  H       4.942928      0.382156      1.018659
  H       3.004187      1.775066      1.574072
26
Coordinates from ORCA-job stilbene_TS_Compound_2 E -540.281092100000
  C       0.640688      1.779108      0.350164
  C      -0.640687      1.779107     -0.350168
  C      -1.746998      0.978157     -0.017453
  C      -2.956546      1.088246     -0.745900
  C      -4.048848      0.313289     -0.433171
  C      -3.986881     -0.601599      0.614441
  C      -2.809136     -0.729413      1.344833
  C      -1.708458      0.038986      1.041181
  C       1.746998      0.978156      0.017451
  C       1.708457      0.038983     -1.041180
  C       2.809136     -0.729416     -1.344830
  C       3.986881     -0.601600     -0.614439
  C       4.048849      0.313291      0.433171
  C       2.956546      1.088247      0.745897
  H       0.767277      2.474568      1.171385
  H      -0.767276      2.474565     -1.171391
  H      -3.010508      1.796747     -1.557642
  H      -4.958450      0.416350     -1.003068
  H      -4.844608     -1.206967      0.857400
  H      -2.756341     -1.437922      2.156083
  H      -0.797930     -0.068328      1.606793
  H       0.797930     -0.068333     -1.606791
  H       2.756341     -1.437928     -2.156079
  H       4.844609     -1.206968     -0.857398
  H       4.958451      0.416354      1.003067
  H       3.010508      1.796751      1.557638
26
Coordinates from ORCA-job stilbene_TS_Compound_2 E -540.281094810000
  C       0.640851      1.776548      0.350431
  C      -0.640851      1.776548     -0.350436
  C      -1.748070      0.977075     -0.017585
  C      -2.958526      1.091025     -0.744041
  C      -4.051721      0.317304     -0.431520
  C      -3.989886     -0.600144      0.613873
  C      -2.811334     -0.731758      1.342294
  C      -1.709717      0.035365      1.038864
  C       1.748071      0.977075      0.017583
  C       1.709718      0.035363     -1.038863
  C       2.811334     -0.731761     -1.342292
  C       3.989886     -0.600145     -0.613871
  C       4.051722      0.317305      0.431520
  C       2.958526      1.091027      0.744039
  H       0.766898      2.472986      1.170824
  H      -0.766898      2.472983     -1.170830
  H      -3.012350      1.801585     -1.553987
  H      -4.961996      0.423318     -0.999811
  H      -4.848285     -1.204703      0.856472
  H      -2.758642     -1.442328      2.151753
  H      -0.798474     -0.075054      1.602728
  H       0.798474     -0.075058     -1.602728
  H       2.758642     -1.442334     -2.151748
  H       4.848285     -1.204705     -0.856468
  H       4.961996      0.423321      0.999811
  H       3.012350      1.801590      1.553983
26
Coordinates from ORCA-job stilbene_TS_Compound_2 E -540.281094810000
  C       0.640982      1.776820      0.350350
  C      -0.640982      1.776819     -0.350354
  C      -1.748129      0.977281     -0.017692
  C      -2.959083      1.092427     -0.743188
  C      -4.052194      0.318500     -0.430973
  C      -3.989758     -0.600538      0.613007
  C      -2.810726     -0.733400      1.340419
  C      -1.709257      0.034132      1.037488
  C       1.748129      0.977281      0.017691
  C       1.709257      0.034129     -1.037488
  C       2.810726     -0.733404     -1.340417
  C       3.989758     -0.600540     -0.613005
  C       4.052194      0.318501      0.430972
  C       2.959083      1.092429      0.743186
  H       0.767345      2.473803      1.170225
  H      -0.767344      2.473799     -1.170231
  H      -3.013349      1.804109     -1.552124
  H      -4.962873      0.425549     -0.998421
  H      -4.848115     -1.205250      0.855376
  H      -2.757584     -1.445185      2.148780
  H      -0.797759     -0.077027      1.600792
  H       0.797759     -0.077031     -1.600791
  H       2.757584     -1.445191     -2.148776
  H       4.848116     -1.205252     -0.855373
  H       4.962873      0.425552      0.998420
  H       3.013349      1.804113      1.552119
