6
Coordinates from ORCA-job ethylene_constraint E -78.306128520000
  C          -2.25272462602694      0.86516985174822     -1.08484969125466
  C          -2.42011507593524      0.86516985519205      0.26640398977672
  H          -1.83299093051199      1.70110519273902     -1.65663298421696
  H          -2.91266751883775      0.29837915948336     -1.75223721620286
  H          -2.83984878398950      1.70110519122326      0.83818728142650
  H          -1.76017219469858      0.29837915561409      0.93379152047126
