! ExtOpt opt
%method
  ProgExt "/proj/scgrp/users/x_rompe/ExtOptORCA-OpenQP/oqp_orca_wrapper"
  Ext_Params "-s 1 -b 6-31g*"
end
%geom
  Scan
  D 0 1 2 3 = 6.0, 180.0, 10
  end
end
%pal
nprocs 16
end
%maxcore 3000
*xyz 0 1
 C          1.3805195692       -0.4969795860        0.9308673935
 C          0.4230268061       -0.2439144375        2.0065535191
 C         -0.8175918085        0.2338341192        1.8821333105
 C         -1.5397612195        0.4933208294        0.6374654358
 C         -1.4576430885       -0.3739441373       -0.4514517274
 C         -2.1699381218       -0.1185890387       -1.6070959865
 C         -2.9765858591        1.0044621503       -1.6980378196
 C         -3.0788934572        1.8642394479       -0.6173945156
 C         -2.3757256174        1.6051119356        0.5440712124
 C          1.5162441795        0.3744838677       -0.1493160375
 C          2.4463494991        0.1249634068       -1.1396373206
 C          3.2576552696       -0.9962935014       -1.0710633057
 C          3.1433735141       -1.8602512717        0.0050323927
 C          2.2209917322       -1.6070113229        1.0028598554
 H          0.7927065106       -0.4652413907        3.0011553523
 H         -1.3793549390        0.4502761974        2.7835151489
 H         -0.8398408805       -1.2567607099       -0.3809301174
 H         -2.0985803404       -0.8008460121       -2.4417730351
 H         -3.5290774834        1.2041301729       -2.6043994631
 H         -3.7134099174        2.7367300817       -0.6783790360
 H         -2.4583217748        2.2775927110        1.3866759333
 H          0.8948310623        1.2561346323       -0.2008406689
 H          2.5421454514        0.8105538501       -1.9691806811
 H          3.9812830687       -1.1912235127       -1.8488710578
 H          3.7795075895       -2.7313297866        0.0694387969
 H          2.1349369166       -2.2825836863        1.8426528145
*