#MRSF with ORCA external optimizer
! ExtOpt Opt
%method
    ProgExt "/home/x_rompe/bin/oqp_orca_wrapper_python"
    Ext_Params "--conical -s 1 2 -b 6-31g*"
end
%pal
    nprocs 16
end
%maxcore 3000
%geom
    MaxIter 200
end
*xyz 0 1
C       -1.394303561      0.343010470      0.332056016
C       -2.550372254     -0.011679890      1.030220016
C       -0.238234868      0.697700829      1.030220016
H       -3.449797360     -0.287630113      0.487047016
H        0.661190239      0.973651052      0.487047016
C       -2.550372254     -0.011679890      2.426550016
C       -0.238234868      0.697700829      2.426550016
H       -3.449797360     -0.287630113      2.969723016
H        0.661190239      0.973651052      2.969723016
C       -1.394303561      0.343010470      3.124714016
H       -1.394303561      0.343010470      4.211061016
H       -1.394303561      0.343010470     -0.754290984
*