12
Coordinates from ORCA-job benzene_CI E -231.891524770497
  C          -1.33149369670006      0.35261038553308      0.36859047205584
  C          -2.45232258671652      0.14902575829780      1.26255554482927
  C          -0.11083493163560      0.55246337624475      0.98571145408476
  H          -3.42033043068312      0.53317336135799      0.96263130234397
  H           0.82036346045335      0.65291941099840      0.45518530326223
  C          -2.36985852030661     -0.68003444343907      2.43410868954425
  C          -0.23441552866743      0.67796530641032      2.35619201719100
  H          -3.26839888191074     -0.93427609439964      2.97167075292487
  H           0.55888830727259      1.00801595173232      3.00559591870346
  C          -1.55556036345695      0.41470458406098      2.88735633656990
  H          -1.88320802980604      0.98715524189652      3.74731420142208
  H          -1.48447152784288      0.40240279730655     -0.69629180093163
