12
Coordinates from ORCA-job benzene_CI E -231.346617755406
  C      -1.394304      0.343010      0.332056
  C      -2.550372     -0.011680      1.030220
  C      -0.238235      0.697701      1.030220
  H      -3.449797     -0.287630      0.487047
  H       0.661190      0.973651      0.487047
  C      -2.550372     -0.011680      2.426550
  C      -0.238235      0.697701      2.426550
  H      -3.449797     -0.287630      2.969723
  H       0.661190      0.973651      2.969723
  C      -1.394304      0.343010      3.124714
  H      -1.394304      0.343010      4.211061
  H      -1.394304      0.343010     -0.754291
12
Coordinates from ORCA-job benzene_CI E -231.400061255252
  C      -1.394304      0.343010      0.270504
  C      -2.607496     -0.029214      1.003564
  C      -0.181111      0.715235      1.003564
  H      -3.500332     -0.303130      0.464103
  H       0.711725      0.989151      0.464103
  C      -2.607496     -0.029214      2.453206
  C      -0.181111      0.715235      2.453206
  H      -3.500332     -0.303130      2.992667
  H       0.711725      0.989151      2.992667
  C      -1.394304      0.343010      3.186266
  H      -1.394304      0.343010      4.264873
  H      -1.394304      0.343010     -0.808103
12
Coordinates from ORCA-job benzene_CI E -231.412294003200
  C      -1.394312      0.343008      0.230296
  C      -2.644612     -0.040644      0.984880
  C      -0.143996      0.726665      0.984891
  H      -3.530108     -0.312241      0.446057
  H       0.741501      0.998262      0.446068
  C      -2.644612     -0.040644      2.471879
  C      -0.143996      0.726665      2.471890
  H      -3.530108     -0.312241      3.010702
  H       0.741501      0.998262      3.010713
  C      -1.394295      0.343013      3.226474
  H      -1.394294      0.343013      4.298054
  H      -1.394313      0.343008     -0.841284
12
Coordinates from ORCA-job benzene_CI E -231.412939620053
  C      -1.394258      0.343025      0.217440
  C      -2.658266     -0.044950      0.978670
  C      -0.130343      0.730971      0.978616
  H      -3.542488     -0.315971      0.437114
  H       0.753878      1.001991      0.437053
  C      -2.658265     -0.044950      2.478154
  C      -0.130341      0.730971      2.478100
  H      -3.542485     -0.315970      3.019718
  H       0.753881      1.001992      3.019656
  C      -1.394349      0.342996      3.239330
  H      -1.394356      0.342994      4.311264
  H      -1.394251      0.343027     -0.854494
12
Coordinates from ORCA-job benzene_CI E -231.412863497469
  C      -1.394497      0.342951      0.216393
  C      -2.660990     -0.046030      0.977670
  C      -0.127613      0.732052      0.977900
  H      -3.544182     -0.316348      0.434469
  H       0.755583      1.002371      0.434731
  C      -2.660995     -0.046032      2.478872
  C      -0.127619      0.732050      2.479099
  H      -3.544191     -0.316350      3.022041
  H       0.755573      1.002368      3.022299
  C      -1.394109      0.343070      3.240377
  H      -1.394080      0.343079      4.312183
  H      -1.394523      0.342943     -0.855413
12
Coordinates from ORCA-job benzene_CI E -231.412840716847
  C      -1.395400      0.342674      0.217078
  C      -2.662411     -0.047075      0.976952
  C      -0.126137      0.733116      0.978239
  H      -3.544770     -0.316173      0.431858
  H       0.756290      1.002224      0.433191
  C      -2.662476     -0.047097      2.478538
  C      -0.126202      0.733094      2.479810
  H      -3.544905     -0.316206      3.023594
  H       0.756155      1.002191      3.024897
  C      -1.393198      0.343350      3.239692
  H      -1.393128      0.343368      4.311512
  H      -1.395460      0.342659     -0.854742
12
Coordinates from ORCA-job benzene_CI E -231.414265856752
  C      -1.401354      0.340858      0.217048
  C      -2.665320     -0.049309      0.972612
  C      -0.122882      0.735471      0.980794
  H      -3.546388     -0.315944      0.424327
  H       0.758304      1.001979      0.432995
  C      -2.665744     -0.049456      2.475990
  C      -0.123304      0.735324      2.484145
  H      -3.546897     -0.315953      3.023775
  H       0.757799      1.001970      3.032441
  C      -1.387257      0.345161      3.239722
  H      -1.386825      0.345244      4.311579
  H      -1.401773      0.340780     -0.854808
12
Coordinates from ORCA-job benzene_CI E -231.494074506772
  C      -1.436836      0.330106      0.211608
  C      -2.677467     -0.055440      0.945640
  C      -0.108656      0.742341      0.994796
  H      -3.551952     -0.316851      0.385802
  H       0.766914      1.002542      0.437842
  C      -2.680002     -0.056338      2.462046
  C      -0.111181      0.741445      2.511065
  H      -3.555600     -0.316542      3.019055
  H       0.763286      1.002855      3.070836
  C      -1.351695      0.355938      3.245165
  H      -1.349219      0.356258      4.316502
  H      -1.439234      0.329812     -0.859737
12
Coordinates from ORCA-job benzene_CI E -231.497196130179
  C      -1.460195      0.322825      0.188420
  C      -2.661204     -0.051207      0.905005
  C      -0.118806      0.740415      0.977831
  H      -3.535508     -0.311219      0.343469
  H       0.756296      0.998677      0.419360
  C      -2.669878     -0.054422      2.479053
  C      -0.127477      0.737200      2.551667
  H      -3.545048     -0.312696      3.037638
  H       0.746766      0.997202      3.113083
  C      -1.328262      0.363240      3.268337
  H      -1.325273      0.363676      4.340175
  H      -1.463053      0.322435     -0.883418
12
Coordinates from ORCA-job benzene_CI E -231.506603120343
  C      -1.432142      0.331374      0.190695
  C      -2.662036     -0.052087      0.927999
  C      -0.116672      0.742013      0.966491
  H      -3.543514     -0.312974      0.375568
  H       0.762972      1.000479      0.411837
  C      -2.672006     -0.056020      2.490399
  C      -0.126666      0.738072      2.528667
  H      -3.551655     -0.314476      3.045139
  H       0.754800      0.998966      3.081027
  C      -1.356349      0.354681      3.266050
  H      -1.358588      0.353715      4.338800
  H      -1.429787      0.332383     -0.882052
12
Coordinates from ORCA-job benzene_CI E -231.509237837940
  C      -1.410286      0.338031      0.189314
  C      -2.663680     -0.053444      0.942978
  C      -0.112619      0.744680      0.953676
  H      -3.548652     -0.313684      0.396165
  H       0.770101      1.002178      0.403707
  C      -2.676030     -0.058679      2.503210
  C      -0.125035      0.739423      2.513696
  H      -3.558736     -0.316160      3.053268
  H       0.759919      0.999671      3.060468
  C      -1.378219      0.348019      3.267401
  H      -1.381295      0.347048      4.339672
  H      -1.407112      0.339042     -0.882936
12
Coordinates from ORCA-job benzene_CI E -231.509466077039
  C      -1.402329      0.340196      0.187573
  C      -2.668163     -0.061607      0.948199
  C      -0.106794      0.758382      0.947672
  H      -3.556047     -0.309568      0.400984
  H       0.781836      1.001073      0.400729
  C      -2.681838     -0.072397      2.509224
  C      -0.120569      0.747564      2.508480
  H      -3.570430     -0.315033      3.056246
  H       0.767316      0.995571      3.055692
  C      -1.386189      0.345845      3.269126
  H      -1.385958      0.347809      4.341386
  H      -1.402477      0.338291     -0.884691
12
Coordinates from ORCA-job benzene_CI E -231.510017954042
  C      -1.396544      0.341630      0.186647
  C      -2.668174     -0.072038      0.953368
  C      -0.106006      0.781250      0.943341
  H      -3.562049     -0.298794      0.406695
  H       0.793119      0.997462      0.402801
  C      -2.682584     -0.095297      2.513551
  C      -0.120568      0.757962      2.503331
  H      -3.581667     -0.311392      3.054164
  H       0.773296      0.984827      3.050040
  C      -1.391987      0.344397      3.270023
  H      -1.387271      0.353639      4.342291
  H      -1.401207      0.332479     -0.885633
12
Coordinates from ORCA-job benzene_CI E -231.510992316375
  C      -1.395345      0.342049      0.187215
  C      -2.665595     -0.077002      0.955382
  C      -0.108549      0.796335      0.942066
  H      -3.563115     -0.290056      0.408867
  H       0.796703      0.994698      0.404729
  C      -2.680017     -0.110405      2.514825
  C      -0.123148      0.762910      2.501327
  H      -3.585233     -0.308617      3.052237
  H       0.774343      0.976114      3.047892
  C      -1.393190      0.343969      3.269440
  H      -1.387085      0.359384      4.341664
  H      -1.401413      0.326747     -0.885022
12
Coordinates from ORCA-job benzene_CI E -231.512941777778
  C      -1.392679      0.343134      0.188320
  C      -2.663134     -0.084085      0.958646
  C      -0.111277      0.819527      0.939321
  H      -3.565455     -0.276796      0.412226
  H       0.801747      0.991173      0.405745
  C      -2.677257     -0.133629      2.517569
  C      -0.125614      0.769971      2.498075
  H      -3.590246     -0.305076      3.051219
  H       0.776660      0.962894      3.044572
  C      -1.395863      0.342870      3.268312
  H      -1.389108      0.368258      4.340405
  H      -1.399418      0.317885     -0.883790
12
Coordinates from ORCA-job benzene_CI E -231.515862806294
  C      -1.390868      0.344357      0.190799
  C      -2.659940     -0.089634      0.961915
  C      -0.114055      0.843070      0.936716
  H      -3.566211     -0.262710      0.414974
  H       0.805633      0.988194      0.406102
  C      -2.674456     -0.157205      2.520176
  C      -0.128815      0.775504      2.494813
  H      -3.594109     -0.302089      3.050865
  H       0.777395      0.948851      3.041850
  C      -1.397676      0.341634      3.265816
  H      -1.391206      0.378453      4.337728
  H      -1.397335      0.307701     -0.881134
12
Coordinates from ORCA-job benzene_CI E -231.519814584929
  C      -1.389125      0.345900      0.194699
  C      -2.656007     -0.093840      0.965909
  C      -0.116252      0.866993      0.933695
  H      -3.565420     -0.247866      0.417843
  H       0.809201      0.985970      0.405781
  C      -2.672241     -0.181162      2.523202
  C      -0.132755      0.779697      2.490822
  H      -3.597657     -0.299864      3.051192
  H       0.776583      0.934056      3.039001
  C      -1.399418      0.340079      3.261900
  H      -1.393562      0.389692      4.333526
  H      -1.394988      0.296470     -0.876949
12
Coordinates from ORCA-job benzene_CI E -231.524919732296
  C      -1.387177      0.347806      0.200082
  C      -2.651334     -0.096846      0.970928
  C      -0.117529      0.891304      0.930055
  H      -3.563080     -0.232295      0.421060
  H       0.812928      0.984617      0.404766
  C      -2.670948     -0.205509      2.526848
  C      -0.137436      0.782694      2.485803
  H      -3.601366     -0.298515      3.052214
  H       0.774224      0.918537      3.035800
  C      -1.401366      0.338162      3.256505
  H      -1.396117      0.401847      4.327696
  H      -1.392441      0.284324     -0.871137
12
Coordinates from ORCA-job benzene_CI E -231.531335236645
  C      -1.384894      0.350069      0.207016
  C      -2.645821     -0.098748      0.977143
  C      -0.117831      0.915937      0.925752
  H      -3.559126     -0.215987      0.424800
  H       0.816978      0.984168      0.403119
  C      -2.670633     -0.230178      2.531158
  C      -0.142958      0.784590      2.479588
  H      -3.605397     -0.298077      3.053869
  H       0.770252      0.902285      3.032076
  C      -1.403647      0.335888      3.249558
  H      -1.398827      0.414813      4.320129
  H      -1.389738      0.271365     -0.863587
12
Coordinates from ORCA-job benzene_CI E -231.539229833765
  C      -1.382240      0.352661      0.215566
  C      -2.639360     -0.099638      0.984633
  C      -0.117251      0.940781      0.920854
  H      -3.553510     -0.198938      0.429211
  H       0.821340      0.984597      0.400957
  C      -2.671200     -0.255059      2.536060
  C      -0.149427      0.785478      2.472099
  H      -3.609738     -0.298522      3.056036
  H       0.764622      0.885295      3.027684
  C      -1.406303      0.333286      3.240997
  H      -1.401673      0.428486      4.310719
  H      -1.386903      0.257699     -0.854194
12
Coordinates from ORCA-job benzene_CI E -231.548758861795
  C      -1.379217      0.355533      0.225763
  C      -2.631859     -0.099621      0.993401
  C      -0.115979      0.965699      0.915490
  H      -3.546281     -0.181162      0.434386
  H       0.825898      0.985836      0.398413
  C      -2.672459     -0.280015      2.541428
  C      -0.156933      0.785461      2.463330
  H      -3.614275     -0.299782      3.058584
  H       0.757383      0.867580      3.022527
  C      -1.409329      0.330404      3.230790
  H      -1.404680      0.442748      4.299341
  H      -1.383911      0.243444     -0.842833
12
Coordinates from ORCA-job benzene_CI E -231.565499012206
  C      -1.373005      0.360717      0.240487
  C      -2.622319     -0.099660      1.007588
  C      -0.113849      1.003351      0.907197
  H      -3.537321     -0.154798      0.444906
  H       0.832195      0.987763      0.395281
  C      -2.674569     -0.317726      2.549727
  C      -0.166478      0.785503      2.449143
  H      -3.620538     -0.301744      3.061717
  H       0.748414      0.841312      3.012043
  C      -1.415548      0.325204      3.216051
  H      -1.412197      0.463974      4.282195
  H      -1.376427      0.222230     -0.825715
12
Coordinates from ORCA-job benzene_CI E -231.596200058334
  C      -1.362805      0.369613      0.263773
  C      -2.608937     -0.099062      1.030430
  C      -0.111456      1.059689      0.895748
  H      -3.524613     -0.115453      0.464755
  H       0.839130      0.990092      0.392715
  C      -2.676928     -0.374150      2.561174
  C      -0.179862      0.784913      2.426308
  H      -3.627408     -0.304132      3.064270
  H       0.735706      0.802110      2.992274
  C      -1.425771      0.316285      3.192742
  H      -1.426933      0.495835      4.253895
  H      -1.361765      0.190386     -0.797465
12
Coordinates from ORCA-job benzene_CI E -231.526652810927
  C      -1.347075      0.384698      0.302978
  C      -2.588218     -0.096379      1.067765
  C      -0.110893      1.142836      0.881548
  H      -3.504665     -0.056462      0.502342
  H       0.842268      0.991482      0.393866
  C      -2.677438     -0.457433      2.575365
  C      -0.200566      0.782250      2.388989
  H      -3.630447     -0.305633      3.063086
  H       0.715776      0.743338      2.954831
  C      -1.441540      0.301164      3.153499
  H      -1.454996      0.543322      4.203733
  H      -1.333850      0.142943     -0.747383
12
Coordinates from ORCA-job benzene_CI E -231.584451083357
  C      -1.388024      0.382565      0.376107
  C      -2.581042     -0.086170      1.118184
  C      -0.059037      1.211429      0.909167
  H      -3.480510     -0.026813      0.522206
  H       0.894330      1.017324      0.422885
  C      -2.729288     -0.526367      2.547791
  C      -0.207518      0.772092      2.338579
  H      -3.682543     -0.331778      3.033979
  H       0.691877      0.713925      2.934984
  C      -1.400673      0.303319      3.080440
  H      -1.416321      0.595835      4.118189
  H      -1.372896      0.090764     -0.661892
12
Coordinates from ORCA-job benzene_CI E -231.657655890787
  C      -1.379418      0.385208      0.432633
  C      -2.527484     -0.075553      1.153098
  C      -0.071785      1.249865      0.904974
  H      -3.428951      0.023739      0.560024
  H       0.881938      1.017879      0.426309
  C      -2.716500     -0.565228      2.552020
  C      -0.260898      0.761473      2.303668
  H      -3.670149     -0.332542      3.030580
  H       0.640455      0.663857      2.897457
  C      -1.409321      0.300585      3.023774
  H      -1.431704      0.621025      4.057224
  H      -1.357826      0.065817     -0.601142
12
Coordinates from ORCA-job benzene_CI E -231.702053861559
  C      -1.372708      0.387622      0.472495
  C      -2.486473     -0.065784      1.177158
  C      -0.079151      1.272053      0.898292
  H      -3.387787      0.057347      0.584115
  H       0.874565      1.019970      0.422989
  C      -2.709097     -0.587835      2.558807
  C      -0.301751      0.751690      2.279652
  H      -3.662674     -0.334865      3.033998
  H       0.599328      0.630752      2.873717
  C      -1.416057      0.298081      2.983696
  H      -1.442890      0.635216      4.014004
  H      -1.346949      0.051880     -0.558302
12
Coordinates from ORCA-job benzene_CI E -231.730272174449
  C      -1.362403      0.392113      0.510644
  C      -2.442849     -0.052478      1.202183
  C      -0.094890      1.291074      0.892298
  H      -3.347306      0.090112      0.611844
  H       0.855769      1.015966      0.421049
  C      -2.693260     -0.607788      2.565060
  C      -0.345000      0.738301      2.254781
  H      -3.643526     -0.331250      3.036142
  H       0.558908      0.599042      2.846871
  C      -1.426464      0.293353      2.944989
  H      -1.463460      0.646779      3.972005
  H      -1.327161      0.040902     -0.517245
12
Coordinates from ORCA-job benzene_CI E -231.746687400803
  C      -1.352822      0.393356      0.518323
  C      -2.424664     -0.026607      1.211732
  C      -0.147132      1.295679      0.910971
  H      -3.348820      0.115460      0.643488
  H       0.795263      0.994428      0.446822
  C      -2.639130     -0.616911      2.546509
  C      -0.361977      0.712001      2.245934
  H      -3.580725     -0.312440      3.010319
  H       0.560139      0.578155      2.819442
  C      -1.436800      0.291706      2.935664
  H      -1.505352      0.666734      3.956230
  H      -1.289625      0.024564     -0.504814
12
Coordinates from ORCA-job benzene_CI E -231.762366605488
  C      -1.341171      0.383566      0.503759
  C      -2.422193      0.019400      1.212691
  C      -0.217200      1.274383      0.942840
  H      -3.371310      0.148669      0.678147
  H       0.723595      0.977351      0.476421
  C      -2.555874     -0.618207      2.516031
  C      -0.359061      0.663560      2.248940
  H      -3.494059     -0.311512      2.982044
  H       0.580448      0.558715      2.805055
  C      -1.454512      0.303636      2.942283
  H      -1.569669      0.707972      3.948821
  H      -1.250639      0.008591     -0.516413
12
Coordinates from ORCA-job benzene_CI E -231.720378555566
  C      -1.313839      0.369741      0.458249
  C      -2.443914      0.049216      1.246460
  C      -0.224450      1.227918      0.942718
  H      -3.420386      0.283046      0.815048
  H       0.721631      0.933526      0.483794
  C      -2.471926     -0.710558      2.493701
  C      -0.313867      0.646744      2.256857
  H      -3.409953     -0.382734      2.948147
  H       0.616928      0.590486      2.826174
  C      -1.513759      0.318335      2.935581
  H      -1.715650      0.785429      3.897380
  H      -1.242458      0.004978     -0.563491
12
Coordinates from ORCA-job benzene_CI E -231.771417198913
  C      -1.329488      0.370692      0.466271
  C      -2.452000      0.036601      1.201928
  C      -0.230941      1.257602      0.936824
  H      -3.409249      0.218843      0.710037
  H       0.713947      0.974318      0.462883
  C      -2.517573     -0.649939      2.501708
  C      -0.322571      0.650979      2.273189
  H      -3.464959     -0.352500      2.969765
  H       0.610413      0.570591      2.831702
  C      -1.467575      0.311810      2.972621
  H      -1.622744      0.743962      3.960055
  H      -1.238904     -0.016833     -0.546361
12
Coordinates from ORCA-job benzene_CI E -231.744133783463
  C      -1.364195      0.391388      0.468149
  C      -2.413649      0.047670      1.184037
  C      -0.222445      1.186941      0.957326
  H      -3.372808      0.162128      0.681970
  H       0.732657      0.955894      0.471455
  C      -2.481602     -0.636416      2.521698
  C      -0.336725      0.621182      2.286429
  H      -3.432337     -0.386604      3.014622
  H       0.581639      0.543076      2.865257
  C      -1.466126      0.326497      2.955509
  H      -1.647123      0.820175      3.910283
  H      -1.308929      0.084193     -0.576117
12
Coordinates from ORCA-job benzene_CI E -231.791976348282
  C      -1.341329      0.378078      0.459801
  C      -2.426122      0.051029      1.205147
  C      -0.217681      1.155524      0.937257
  H      -3.386999      0.233845      0.726595
  H       0.735594      0.943755      0.443431
  C      -2.493788     -0.668192      2.505432
  C      -0.328194      0.643580      2.302686
  H      -3.446901     -0.405733      2.983782
  H       0.590543      0.613866      2.886373
  C      -1.460893      0.313962      2.957246
  H      -1.654408      0.794018      3.912548
  H      -1.301464      0.062393     -0.579677
12
Coordinates from ORCA-job benzene_CI E -231.774336048743
  C      -1.305988      0.381506      0.431983
  C      -2.446711      0.038683      1.235825
  C      -0.201413      1.103515      0.918691
  H      -3.407362      0.308062      0.811538
  H       0.744808      0.910116      0.422967
  C      -2.498580     -0.751385      2.507229
  C      -0.278860      0.681989      2.321921
  H      -3.441244     -0.423249      2.952751
  H       0.635141      0.675971      2.904139
  C      -1.484995      0.284127      2.968408
  H      -1.736628      0.818916      3.877389
  H      -1.309811      0.087875     -0.612220
12
Coordinates from ORCA-job benzene_CI E -231.821815992899
  C      -1.327700      0.379931      0.406611
  C      -2.441804      0.028419      1.205361
  C      -0.202305      1.058535      0.934720
  H      -3.410186      0.318406      0.809194
  H       0.749582      0.887854      0.446554
  C      -2.478025     -0.735307      2.503098
  C      -0.279594      0.691469      2.333721
  H      -3.422936     -0.424875      2.955068
  H       0.629811      0.715620      2.921581
  C      -1.477964      0.286430      2.972102
  H      -1.731197      0.805458      3.894013
  H      -1.339322      0.104184     -0.641401
12
Coordinates from ORCA-job benzene_CI E -231.838652107943
  C      -1.328721      0.377115      0.388480
  C      -2.424219      0.036802      1.200170
  C      -0.206010      0.986885      0.949262
  H      -3.395466      0.369228      0.853609
  H       0.751602      0.876447      0.460621
  C      -2.447289     -0.729966      2.498395
  C      -0.278281      0.689569      2.334214
  H      -3.401955     -0.468185      2.959903
  H       0.619987      0.754479      2.934112
  C      -1.495963      0.287982      2.954228
  H      -1.760503      0.818262      3.869092
  H      -1.364824      0.117507     -0.661467
12
Coordinates from ORCA-job benzene_CI E -231.855804956575
  C      -1.324176      0.375689      0.381540
  C      -2.410332      0.050741      1.216649
  C      -0.207863      0.903226      0.959507
  H      -3.382714      0.414904      0.900528
  H       0.748187      0.841552      0.465045
  C      -2.419585     -0.736246      2.484283
  C      -0.275594      0.691426      2.342948
  H      -3.379218     -0.521586      2.952365
  H       0.604218      0.806753      2.961212
  C      -1.500246      0.295766      2.926736
  H      -1.788209      0.839357      3.824659
  H      -1.396111      0.154544     -0.674850
12
Coordinates from ORCA-job benzene_CI E -231.861478712830
  C      -1.317635      0.381182      0.354548
  C      -2.434709      0.054628      1.240483
  C      -0.166873      0.811501      0.968868
  H      -3.407016      0.449875      0.957878
  H       0.783785      0.801210      0.466920
  C      -2.399247     -0.748956      2.477613
  C      -0.231802      0.703257      2.353800
  H      -3.361502     -0.628591      2.954526
  H       0.617594      0.842930      3.004093
  C      -1.527584      0.328979      2.899044
  H      -1.841618      0.901477      3.768142
  H      -1.445037      0.218633     -0.705295
12
Coordinates from ORCA-job benzene_CI E -231.880375450261
  C      -1.339435      0.369027      0.362041
  C      -2.407889      0.096158      1.238326
  C      -0.149844      0.724912      0.977211
  H      -3.377875      0.521121      0.990981
  H       0.797059      0.747014      0.459385
  C      -2.377275     -0.714265      2.454669
  C      -0.251001      0.712663      2.364669
  H      -3.333744     -0.765476      2.959786
  H       0.577870      0.896176      3.026652
  C      -1.518894      0.351580      2.872568
  H      -1.863495      0.929059      3.730865
  H      -1.487120      0.248156     -0.696532
12
Coordinates from ORCA-job benzene_CI E -231.883017868835
  C      -1.332885      0.384552      0.353347
  C      -2.434083      0.110100      1.246014
  C      -0.138395      0.703307      0.973458
  H      -3.412323      0.509471      0.988835
  H       0.810395      0.677339      0.457454
  C      -2.389664     -0.689709      2.456475
  C      -0.231159      0.728611      2.371513
  H      -3.323004     -0.859657      2.971537
  H       0.593000      0.913968      3.030774
  C      -1.523602      0.375880      2.876034
  H      -1.874854      0.960579      3.722666
  H      -1.475070      0.301684     -0.707486
12
Coordinates from ORCA-job benzene_CI E -231.885360100714
  C      -1.325363      0.366960      0.361508
  C      -2.434663      0.130737      1.264507
  C      -0.120420      0.598100      0.981275
  H      -3.404602      0.556731      1.025534
  H       0.819690      0.628778      0.453974
  C      -2.377567     -0.683868      2.449041
  C      -0.234791      0.720479      2.359128
  H      -3.281796     -0.946250      2.964962
  H       0.566738      0.983641      3.020634
  C      -1.547450      0.396418      2.860776
  H      -1.908490      0.986984      3.700406
  H      -1.482930      0.377415     -0.701124
12
Coordinates from ORCA-job benzene_CI E -231.887026324620
  C      -1.323570      0.346335      0.360052
  C      -2.437487      0.103728      1.244240
  C      -0.121988      0.629333      0.980033
  H      -3.388837      0.560624      1.000204
  H       0.814903      0.683000      0.450286
  C      -2.395677     -0.679317      2.461365
  C      -0.235619      0.706479      2.352878
  H      -3.306289     -0.929584      2.977436
  H       0.577762      0.954691      3.013084
  C      -1.551882      0.405804      2.873116
  H      -1.886954      0.981987      3.733194
  H      -1.476004      0.353044     -0.705268
12
Coordinates from ORCA-job benzene_CI E -231.888600050717
  C      -1.327769      0.347234      0.365941
  C      -2.436676      0.140868      1.253487
  C      -0.124475      0.636894      0.972917
  H      -3.401436      0.545546      0.966080
  H       0.809761      0.708846      0.437816
  C      -2.392375     -0.673850      2.454906
  C      -0.236553      0.684107      2.363356
  H      -3.304717     -0.914502      2.978513
  H       0.573017      0.948845      3.023038
  C      -1.539931      0.394360      2.885896
  H      -1.875994      0.975802      3.740194
  H      -1.474494      0.321976     -0.701525
12
Coordinates from ORCA-job benzene_CI E -231.890227596234
  C      -1.326924      0.355555      0.366093
  C      -2.443122      0.144331      1.259871
  C      -0.118725      0.603500      0.977054
  H      -3.409902      0.546783      0.977021
  H       0.815166      0.670604      0.444284
  C      -2.382586     -0.673271      2.449669
  C      -0.236830      0.694488      2.358758
  H      -3.285258     -0.940531      2.972010
  H       0.569671      0.968491      3.016052
  C      -1.552738      0.410418      2.879499
  H      -1.885702      0.981494      3.740655
  H      -1.474692      0.354264     -0.700347
12
Coordinates from ORCA-job benzene_CI E -231.890816723520
  C      -1.325541      0.352353      0.366731
  C      -2.445554      0.138154      1.258628
  C      -0.115418      0.588776      0.978660
  H      -3.406973      0.551837      0.976391
  H       0.816390      0.669750      0.445550
  C      -2.382935     -0.676968      2.450190
  C      -0.235924      0.687822      2.355097
  H      -3.285370     -0.941720      2.973319
  H       0.566173      0.983474      3.009083
  C      -1.555191      0.408092      2.884450
  H      -1.886381      0.985114      3.741990
  H      -1.474919      0.369444     -0.699468
12
Coordinates from ORCA-job benzene_CI E -231.891273595976
  C      -1.327109      0.352022      0.367869
  C      -2.449729      0.141240      1.260340
  C      -0.112449      0.570803      0.980094
  H      -3.411277      0.548282      0.970503
  H       0.818288      0.662568      0.447458
  C      -2.377408     -0.678196      2.445187
  C      -0.235093      0.679472      2.355486
  H      -3.278161     -0.945588      2.970684
  H       0.561380      0.996706      3.007374
  C      -1.556375      0.410314      2.889856
  H      -1.884840      0.992695      3.743787
  H      -1.478868      0.385808     -0.698018
12
Coordinates from ORCA-job benzene_CI E -231.891471858400
  C      -1.330385      0.352902      0.368821
  C      -2.451982      0.147582      1.263151
  C      -0.110806      0.554220      0.982813
  H      -3.416972      0.539810      0.964005
  H       0.820317      0.652959      0.452006
  C      -2.369271     -0.678235      2.438100
  C      -0.235918      0.675876      2.356192
  H      -3.269394     -0.945920      2.965878
  H       0.556865      1.006105      3.006537
  C      -1.557672      0.415825      2.891505
  H      -1.881458      0.995727      3.747859
  H      -1.484968      0.399275     -0.696247
12
Coordinates from ORCA-job benzene_CI E -231.891497637157
  C      -1.331201      0.353410      0.368453
  C      -2.451805      0.147831      1.263455
  C      -0.111491      0.553941      0.983897
  H      -3.418809      0.534141      0.962910
  H       0.820361      0.652552      0.454407
  C      -2.368027     -0.679717      2.436474
  C      -0.235389      0.676974      2.356417
  H      -3.270584     -0.938703      2.964768
  H       0.557855      1.006698      3.006228
  C      -1.556094      0.414711      2.891487
  H      -1.880144      0.993472      3.748392
  H      -1.486314      0.400814     -0.696267
12
Coordinates from ORCA-job benzene_CI E -231.891512110855
  C      -1.331789      0.352914      0.368456
  C      -2.451334      0.149013      1.263900
  C      -0.111216      0.551477      0.985028
  H      -3.419755      0.531348      0.962878
  H       0.820505      0.652637      0.455653
  C      -2.367796     -0.679821      2.435591
  C      -0.235105      0.677931      2.356389
  H      -3.270896     -0.936112      2.964616
  H       0.558311      1.007689      3.005880
  C      -1.555750      0.415824      2.889414
  H      -1.879788      0.990939      3.748906
  H      -1.487030      0.402290     -0.696091
12
Coordinates from ORCA-job benzene_CI E -231.891516497887
  C      -1.331530      0.352600      0.368487
  C      -2.451157      0.148628      1.263813
  C      -0.111023      0.551735      0.985279
  H      -3.419916      0.530777      0.963718
  H       0.820456      0.653784      0.455527
  C      -2.368912     -0.680010      2.435970
  C      -0.234486      0.677913      2.356273
  H      -3.272077     -0.934579      2.965604
  H       0.558995      1.007911      3.005455
  C      -1.555220      0.415373      2.888426
  H      -1.880544      0.989536      3.748165
  H      -1.486229      0.402456     -0.696097
12
Coordinates from ORCA-job benzene_CI E -231.891519001565
  C      -1.331368      0.352420      0.368551
  C      -2.451190      0.148773      1.263669
  C      -0.110845      0.551932      0.985414
  H      -3.420031      0.531131      0.964191
  H       0.820390      0.653923      0.455216
  C      -2.369672     -0.679933      2.436040
  C      -0.234052      0.677735      2.356160
  H      -3.272259     -0.934223      2.966687
  H       0.559312      1.008613      3.005034
  C      -1.554981      0.415066      2.887938
  H      -1.881576      0.988271      3.747860
  H      -1.485369      0.402419     -0.696139
12
Coordinates from ORCA-job benzene_CI E -231.891520872090
  C      -1.331352      0.352503      0.368617
  C      -2.451464      0.149112      1.263478
  C      -0.110677      0.551910      0.985548
  H      -3.420314      0.531764      0.964335
  H       0.820396      0.653155      0.454986
  C      -2.369977     -0.679730      2.435745
  C      -0.233837      0.677569      2.356102
  H      -3.271477     -0.934631      2.967831
  H       0.559319      1.009331      3.004778
  C      -1.554994      0.415106      2.887667
  H      -1.882610      0.987428      3.747747
  H      -1.484657      0.402609     -0.696214
12
Coordinates from ORCA-job benzene_CI E -231.891522731174
  C      -1.331415      0.352619      0.368651
  C      -2.451826      0.149343      1.263168
  C      -0.110620      0.552023      0.985655
  H      -3.420493      0.532482      0.964118
  H       0.820409      0.652406      0.454801
  C      -2.369995     -0.679672      2.435157
  C      -0.233846      0.677548      2.356063
  H      -3.270323     -0.934749      2.969205
  H       0.559200      1.009681      3.004700
  C      -1.555151      0.415080      2.887562
  H      -1.883486      0.986708      3.747792
  H      -1.484098      0.402657     -0.696251
12
Coordinates from ORCA-job benzene_CI E -231.891524082279
  C      -1.331517      0.352708      0.368638
  C      -2.452185      0.149378      1.262821
  C      -0.110665      0.552169      0.985731
  H      -3.420546      0.533136      0.963579
  H       0.820370      0.652006      0.454824
  C      -2.369833     -0.679728      2.434484
  C      -0.234071      0.677700      2.356097
  H      -3.269004     -0.934808      2.970523
  H       0.559020      1.009356      3.004964
  C      -1.555400      0.415058      2.887516
  H      -1.883867      0.986556      3.747760
  H      -1.483944      0.402595     -0.696317
12
Coordinates from ORCA-job benzene_CI E -231.891524770497
  C      -1.331543      0.352680      0.368608
  C      -2.452327      0.149206      1.262609
  C      -0.110775      0.552350      0.985743
  H      -3.420435      0.533342      0.963015
  H       0.820344      0.652335      0.455006
  C      -2.369760     -0.679890      2.434135
  C      -0.234319      0.677892      2.356149
  H      -3.268391     -0.934579      2.971318
  H       0.558904      1.008615      3.005327
  C      -1.555546      0.414901      2.887459
  H      -1.883626      0.986825      3.747576
  H      -1.484169      0.402448     -0.696325
12
Coordinates from ORCA-job benzene_CI E -231.891524770497
  C      -1.331494      0.352610      0.368590
  C      -2.452323      0.149026      1.262556
  C      -0.110835      0.552463      0.985711
  H      -3.420330      0.533173      0.962631
  H       0.820363      0.652919      0.455185
  C      -2.369859     -0.680034      2.434109
  C      -0.234416      0.677965      2.356192
  H      -3.268399     -0.934276      2.971671
  H       0.558888      1.008016      3.005596
  C      -1.555560      0.414705      2.887356
  H      -1.883208      0.987155      3.747314
  H      -1.484472      0.402403     -0.696292
