6
Coordinates from ORCA-job ethylene_s1_opt E -78.228914700000
  C      -2.336420      0.954885     -1.074302
  C      -2.336420      0.954885      0.255856
  H      -2.255945      1.874712     -1.647252
  H      -2.416894      0.035057     -1.647252
  H      -2.416894      1.874712      0.828806
  H      -2.255945      0.035057      0.828806
6
Coordinates from ORCA-job ethylene_s1_opt E -78.249345630000
  C      -2.336420      0.954885     -1.110288
  C      -2.336420      0.954885      0.291842
  H      -2.196474      1.860159     -1.693301
  H      -2.476365      0.049610     -1.693301
  H      -2.476365      1.860159      0.874855
  H      -2.196474      0.049610      0.874855
6
Coordinates from ORCA-job ethylene_s1_opt E -78.260698610000
  C      -2.336420      0.954885     -1.127057
  C      -2.336420      0.954885      0.308612
  H      -2.131947      1.842127     -1.709470
  H      -2.540893      0.067643     -1.709470
  H      -2.540893      1.842127      0.891024
  H      -2.131947      0.067643      0.891024
6
Coordinates from ORCA-job ethylene_s1_opt E -78.275429070000
  C      -2.336420      0.954885     -1.135954
  C      -2.336420      0.954885      0.317508
  H      -2.034205      1.812842     -1.720244
  H      -2.638635      0.096927     -1.720244
  H      -2.638635      1.812842      0.901798
  H      -2.034205      0.096927      0.901798
6
Coordinates from ORCA-job ethylene_s1_opt E -78.293518800000
  C      -2.336420      0.954885     -1.134864
  C      -2.336420      0.954885      0.316418
  H      -1.909437      1.757952     -1.724748
  H      -2.763403      0.151817     -1.724748
  H      -2.763403      1.757952      0.906302
  H      -1.909437      0.151817      0.906302
6
Coordinates from ORCA-job ethylene_s1_opt E -78.309270280000
  C      -2.336420      0.954885     -1.117612
  C      -2.336420      0.954885      0.299166
  H      -1.794898      1.684217     -1.716749
  H      -2.877942      0.225552     -1.716749
  H      -2.877942      1.684217      0.898303
  H      -1.794898      0.225552      0.898303
6
Coordinates from ORCA-job ethylene_s1_opt E -78.316659160000
  C      -2.336420      0.954885     -1.089584
  C      -2.336420      0.954885      0.271138
  H      -1.701265      1.600044     -1.701257
  H      -2.971574      0.309726     -1.701257
  H      -2.971574      1.600044      0.882811
  H      -1.701265      0.309726      0.882811
6
Coordinates from ORCA-job ethylene_s1_opt E -78.316722710000
  C      -2.336420      0.954885     -1.087368
  C      -2.336420      0.954885      0.268922
  H      -1.695332      1.592496     -1.703083
  H      -2.977508      0.317273     -1.703083
  H      -2.977508      1.592496      0.884637
  H      -1.695332      0.317273      0.884637
6
Coordinates from ORCA-job ethylene_s1_opt E -78.316738340000
  C      -2.336420      0.954885     -1.087344
  C      -2.336420      0.954885      0.268898
  H      -1.696392      1.591815     -1.705539
  H      -2.976448      0.317954     -1.705539
  H      -2.976448      1.591815      0.887094
  H      -1.696392      0.317954      0.887094
6
Coordinates from ORCA-job ethylene_s1_opt E -78.316746600000
  C      -2.336420      0.954885     -1.087366
  C      -2.336420      0.954885      0.268920
  H      -1.698834      1.591814     -1.708244
  H      -2.974005      0.317955     -1.708244
  H      -2.974005      1.591814      0.889798
  H      -1.698834      0.317955      0.889798
6
Coordinates from ORCA-job ethylene_s1_opt E -78.316746600000
  C      -2.336420      0.954885     -1.087314
  C      -2.336420      0.954885      0.268869
  H      -1.699082      1.591999     -1.708216
  H      -2.973757      0.317771     -1.708216
  H      -2.973757      1.591999      0.889770
  H      -1.699082      0.317771      0.889770
