! ExtOpt opt
%method
  ProgExt "/proj/scgrp/users/x_rompe/ExtOptORCA-OpenQP/oqp_orca_wrapper"
  Ext_Params "-s 2 -b 6-31g*"
end
%pal
nprocs 8
end
%maxcore 3000
*xyz 0 1
C       -2.336419855      0.954884734     -1.074301850
C       -2.336419855      0.954884734      0.255856150
H       -2.255945385      1.874712143     -1.647251850
H       -2.416894326      0.035057326     -1.647251850
H       -2.416894325      1.874712143      0.828806150
H       -2.255945384      0.035057326      0.828806150
*